CRYSTAL
# Primitive lattice vectors in Angstrom
PRIMVEC
 4.00000000000000 0.00000000000000 0.00000000000000
 0.00000000000000 4.00000000000000 0.00000000000000
 0.00000000000000 0.00000000000000 4.00000000000000
# Cartesian coordinates in Angstrom.
PRIMCOORD
 2 1
Al     0.00000000000000     0.00000000000000     0.00000000000000 0.0 0.0 0.0
Al     2.00000000000000     2.00000000000000     2.00000000000000 0.0 0.0 0.0